/*---------------------------------------------------------------------------*\
  =========                 |
  \\      /  F ield         | OpenFOAM: The Open Source CFD Toolbox
   \\    /   O peration     | Website:  https://openfoam.org
    \\  /    A nd           | Version:  13
     \\/     M anipulation  |
\*---------------------------------------------------------------------------*/
Build  : 13-441953dfbb42
Exec   : CgridShallowWaterFoamSplit -1
Date   : May 27 2026
Time   : 14:40:55
Host   : "uorc104p34"
PID    : 505276
I/O    : uncollated
Case   : /home/mq804938/OpenFOAM/mq804938-13/run/hilaryRun2_apr_26/shallowWater/sphere/WilliMountain/latLon_120x60/run_scheme_1
nProcs : 1
sigFpe : Enabling floating point exception trapping (FOAM_SIGFPE).
fileModificationChecking : Monitoring run-time modified files using timeStampMaster (fileModificationSkew 10)
allowSystemOperations : Allowing user-supplied system call operations

// * * * * * * * * * * * * * * * * * * * * * * * * * * * * * * * * * * * * * //
Create time

Create mesh for time = 0


Reading earthProperties
Reading field h0 (mountain heights) if present

Mountain height from 0 to 1820.568544
Creating Coriolis Force
Reading field h

Reading in velocity field Uf (velocity on face)


Starting time loop


 Time = 300
Courant number mean: 0.01657840186 max: 0.02745629775
Gravity wave Courant number max: 0.4596360678
GAMG:  Solving for h, Initial residual = 0.000164669724, Final residual = 3.126825013e-10, No Iterations 1
GAMG:  Solving for h, Initial residual = 1.573964765e-08, Final residual = 1.011561721e-13, No Iterations 1
ExecutionTime = 0.042782 s  ClockTime = 0 s

 Time = 600
Courant number mean: 0.01657876334 max: 0.02745616025
Gravity wave Courant number max: 0.4596366091
GAMG:  Solving for h, Initial residual = 0.0001659306215, Final residual = 3.059764805e-10, No Iterations 1
GAMG:  Solving for h, Initial residual = 4.459500454e-08, Final residual = 2.70153841e-13, No Iterations 1
ExecutionTime = 0.057621 s  ClockTime = 0 s

 Time = 900
Courant number mean: 0.01657926596 max: 0.02745557008
Gravity wave Courant number max: 0.4596381997
GAMG:  Solving for h, Initial residual = 0.0001659665155, Final residual = 2.9057739e-10, No Iterations 1
GAMG:  Solving for h, Initial residual = 6.834433398e-08, Final residual = 3.883685287e-13, No Iterations 1
ExecutionTime = 0.070756 s  ClockTime = 0 s

 Time = 1200
Courant number mean: 0.01657989427 max: 0.02745459545
Gravity wave Courant number max: 0.4596407417
GAMG:  Solving for h, Initial residual = 0.0001646495937, Final residual = 2.748106504e-10, No Iterations 1
GAMG:  Solving for h, Initial residual = 8.485070102e-08, Final residual = 4.421525378e-13, No Iterations 1
ExecutionTime = 0.08504 s  ClockTime = 0 s

 Time = 1500
Courant number mean: 0.01658063867 max: 0.02745333966
Gravity wave Courant number max: 0.4596440751
GAMG:  Solving for h, Initial residual = 0.0001619306219, Final residual = 2.581763923e-10, No Iterations 1
GAMG:  Solving for h, Initial residual = 9.338091906e-08, Final residual = 4.346850719e-13, No Iterations 1
ExecutionTime = 0.108112 s  ClockTime = 0 s

 Time = 1800
Courant number mean: 0.01658149612 max: 0.02745192738
Gravity wave Courant number max: 0.4596479849
GAMG:  Solving for h, Initial residual = 0.0001578417926, Final residual = 2.417556232e-10, No Iterations 1
GAMG:  Solving for h, Initial residual = 9.567960686e-08, Final residual = 4.007921515e-13, No Iterations 1
ExecutionTime = 0.121727 s  ClockTime = 0 s

 Time = 2100
Courant number mean: 0.01658247229 max: 0.02745048848
Gravity wave Courant number max: 0.4596522115
GAMG:  Solving for h, Initial residual = 0.0001526119669, Final residual = 2.345243364e-10, No Iterations 1
GAMG:  Solving for h, Initial residual = 9.378303654e-08, Final residual = 3.717774799e-13, No Iterations 1
ExecutionTime = 0.132643 s  ClockTime = 0 s

 Time = 2400
Courant number mean: 0.01658354943 max: 0.027449142
Gravity wave Courant number max: 0.4596564647
GAMG:  Solving for h, Initial residual = 0.0001466527971, Final residual = 2.314247265e-10, No Iterations 1
GAMG:  Solving for h, Initial residual = 9.096137481e-08, Final residual = 3.496553812e-13, No Iterations 1
ExecutionTime = 0.144737 s  ClockTime = 0 s

 Time = 2700
Courant number mean: 0.01658472335 max: 0.02744798236
Gravity wave Courant number max: 0.4596604417
GAMG:  Solving for h, Initial residual = 0.0001407875381, Final residual = 2.294128477e-10, No Iterations 1
GAMG:  Solving for h, Initial residual = 9.049633746e-08, Final residual = 3.399883762e-13, No Iterations 1
ExecutionTime = 0.168016 s  ClockTime = 0 s

 Time = 3000
Courant number mean: 0.016585989 max: 0.02744706995
Gravity wave Courant number max: 0.4596638493
GAMG:  Solving for h, Initial residual = 0.0001350341866, Final residual = 2.312776315e-10, No Iterations 1
GAMG:  Solving for h, Initial residual = 9.083400869e-08, Final residual = 3.359973356e-13, No Iterations 1
ExecutionTime = 0.190355 s  ClockTime = 0 s

 Time = 3300
Courant number mean: 0.01658734808 max: 0.02744642702
Gravity wave Courant number max: 0.4596664268
GAMG:  Solving for h, Initial residual = 0.0001293732269, Final residual = 2.332730437e-10, No Iterations 1
GAMG:  Solving for h, Initial residual = 9.471845927e-08, Final residual = 3.526762167e-13, No Iterations 1
ExecutionTime = 0.213482 s  ClockTime = 0 s

 Time = 3600
Courant number mean: 0.01658886084 max: 0.02744603941
Gravity wave Courant number max: 0.4596679696
GAMG:  Solving for h, Initial residual = 0.0001235699964, Final residual = 2.335805523e-10, No Iterations 1
GAMG:  Solving for h, Initial residual = 9.985220142e-08, Final residual = 3.860441781e-13, No Iterations 1
ExecutionTime = 0.236607 s  ClockTime = 0 s

 Time = 3900
Courant number mean: 0.01659048285 max: 0.02744586342
Gravity wave Courant number max: 0.4596683492
GAMG:  Solving for h, Initial residual = 0.0001177584098, Final residual = 2.334957618e-10, No Iterations 1
GAMG:  Solving for h, Initial residual = 1.059976791e-07, Final residual = 4.329585763e-13, No Iterations 1
ExecutionTime = 0.261202 s  ClockTime = 0 s

 Time = 4200
Courant number mean: 0.01659220472 max: 0.02744583684
Gravity wave Courant number max: 0.4596675287
GAMG:  Solving for h, Initial residual = 0.0001114552394, Final residual = 2.295233776e-10, No Iterations 1
GAMG:  Solving for h, Initial residual = 1.111742299e-07, Final residual = 4.716820183e-13, No Iterations 1
ExecutionTime = 0.280389 s  ClockTime = 0 s

 Time = 4500
Courant number mean: 0.016594021 max: 0.02744589219
Gravity wave Courant number max: 0.459665569
GAMG:  Solving for h, Initial residual = 0.0001052095762, Final residual = 2.218727841e-10, No Iterations 1
GAMG:  Solving for h, Initial residual = 1.148455062e-07, Final residual = 5.002288816e-13, No Iterations 1
ExecutionTime = 0.298782 s  ClockTime = 0 s

 Time = 4800
Courant number mean: 0.0165959246 max: 0.02744597059
Gravity wave Courant number max: 0.4596626262
GAMG:  Solving for h, Initial residual = 0.0001043060016, Final residual = 2.195769162e-10, No Iterations 1
GAMG:  Solving for h, Initial residual = 1.153231481e-07, Final residual = 5.162771355e-13, No Iterations 1
ExecutionTime = 0.321178 s  ClockTime = 0 s

 Time = 5100
Courant number mean: 0.01659789672 max: 0.02744603441
Gravity wave Courant number max: 0.4596589386
GAMG:  Solving for h, Initial residual = 0.0001127891555, Final residual = 2.419508123e-10, No Iterations 1
GAMG:  Solving for h, Initial residual = 1.13746806e-07, Final residual = 5.19194376e-13, No Iterations 1
ExecutionTime = 0.34612 s  ClockTime = 0 s

 Time = 5400
Courant number mean: 0.01659996069 max: 0.02744607738
Gravity wave Courant number max: 0.4596548047
GAMG:  Solving for h, Initial residual = 0.0001227154644, Final residual = 2.69730296e-10, No Iterations 1
GAMG:  Solving for h, Initial residual = 1.100346317e-07, Final residual = 5.155930157e-13, No Iterations 1
ExecutionTime = 0.360248 s  ClockTime = 0 s

 Time = 5700
Courant number mean: 0.01660208085 max: 0.02744613114
Gravity wave Courant number max: 0.4596505533
GAMG:  Solving for h, Initial residual = 0.0001320958163, Final residual = 2.974831088e-10, No Iterations 1
GAMG:  Solving for h, Initial residual = 1.06512912e-07, Final residual = 5.131264642e-13, No Iterations 1
ExecutionTime = 0.373364 s  ClockTime = 0 s

 Time = 6000
Courant number mean: 0.01660423515 max: 0.02744626801
Gravity wave Courant number max: 0.4596465112
GAMG:  Solving for h, Initial residual = 0.000139635119, Final residual = 3.203157061e-10, No Iterations 1
GAMG:  Solving for h, Initial residual = 1.042810773e-07, Final residual = 5.11838618e-13, No Iterations 1
ExecutionTime = 0.387798 s  ClockTime = 0 s

 Time = 6300
Courant number mean: 0.01660644889 max: 0.0274465996
Gravity wave Courant number max: 0.4596429701
GAMG:  Solving for h, Initial residual = 0.0001468020531, Final residual = 3.393187045e-10, No Iterations 1
GAMG:  Solving for h, Initial residual = 1.046131536e-07, Final residual = 5.212165973e-13, No Iterations 1
ExecutionTime = 0.413702 s  ClockTime = 0 s

 Time = 6600
Courant number mean: 0.01660871259 max: 0.02744727159
Gravity wave Courant number max: 0.4596401586
GAMG:  Solving for h, Initial residual = 0.0001537361688, Final residual = 3.531001772e-10, No Iterations 1
GAMG:  Solving for h, Initial residual = 1.047451137e-07, Final residual = 5.333894662e-13, No Iterations 1
ExecutionTime = 0.433202 s  ClockTime = 0 s

 Time = 6900
Courant number mean: 0.01661100079 max: 0.02744845492
Gravity wave Courant number max: 0.4596382218
GAMG:  Solving for h, Initial residual = 0.0001607161132, Final residual = 3.634696543e-10, No Iterations 1
GAMG:  Solving for h, Initial residual = 1.074192647e-07, Final residual = 5.471877909e-13, No Iterations 1
ExecutionTime = 0.446859 s  ClockTime = 0 s

 Time = 7200
Courant number mean: 0.01661328859 max: 0.02745033331
Gravity wave Courant number max: 0.4596372122
GAMG:  Solving for h, Initial residual = 0.000166727608, Final residual = 3.631190076e-10, No Iterations 1
GAMG:  Solving for h, Initial residual = 1.123645343e-07, Final residual = 5.690883596e-13, No Iterations 1
ExecutionTime = 0.46127 s  ClockTime = 0 s

 Time = 7500
Courant number mean: 0.01661557679 max: 0.02745308762
Gravity wave Courant number max: 0.4596370914
GAMG:  Solving for h, Initial residual = 0.0001723354969, Final residual = 3.543866882e-10, No Iterations 1
GAMG:  Solving for h, Initial residual = 1.182095822e-07, Final residual = 6.079483386e-13, No Iterations 1
ExecutionTime = 0.476918 s  ClockTime = 0 s

 Time = 7800
Courant number mean: 0.01661784907 max: 0.02745687717
Gravity wave Courant number max: 0.4596377438
GAMG:  Solving for h, Initial residual = 0.0001780475889, Final residual = 3.458391021e-10, No Iterations 1
GAMG:  Solving for h, Initial residual = 1.228991432e-07, Final residual = 6.463861648e-13, No Iterations 1
ExecutionTime = 0.490597 s  ClockTime = 0 s

 Time = 8100
Courant number mean: 0.01662008278 max: 0.02746181874
Gravity wave Courant number max: 0.4596389984
GAMG:  Solving for h, Initial residual = 0.0001834558303, Final residual = 3.468196939e-10, No Iterations 1
GAMG:  Solving for h, Initial residual = 1.242255078e-07, Final residual = 6.512779166e-13, No Iterations 1
ExecutionTime = 0.504173 s  ClockTime = 0 s

 Time = 8400
Courant number mean: 0.01662228333 max: 0.02746796459
Gravity wave Courant number max: 0.4596406569
GAMG:  Solving for h, Initial residual = 0.0001883399018, Final residual = 3.493992168e-10, No Iterations 1
GAMG:  Solving for h, Initial residual = 1.219926141e-07, Final residual = 6.300454136e-13, No Iterations 1
ExecutionTime = 0.520539 s  ClockTime = 0 s

 Time = 8700
Courant number mean: 0.0166244963 max: 0.0274752813
Gravity wave Courant number max: 0.459642522
GAMG:  Solving for h, Initial residual = 0.0001924734728, Final residual = 3.525267103e-10, No Iterations 1
GAMG:  Solving for h, Initial residual = 1.192787259e-07, Final residual = 6.015135327e-13, No Iterations 1
ExecutionTime = 0.544968 s  ClockTime = 0 s

 Time = 9000
Courant number mean: 0.01662674188 max: 0.02748363223
Gravity wave Courant number max: 0.4596444235
GAMG:  Solving for h, Initial residual = 0.0001953927395, Final residual = 3.544615196e-10, No Iterations 1
GAMG:  Solving for h, Initial residual = 1.189258006e-07, Final residual = 5.942954783e-13, No Iterations 1
ExecutionTime = 0.559249 s  ClockTime = 0 s

 Time = 9300
Courant number mean: 0.01662896397 max: 0.02749276664
Gravity wave Courant number max: 0.4596462374
GAMG:  Solving for h, Initial residual = 0.0001973969496, Final residual = 3.587826733e-10, No Iterations 1
GAMG:  Solving for h, Initial residual = 1.204895321e-07, Final residual = 6.148161129e-13, No Iterations 1
ExecutionTime = 0.574501 s  ClockTime = 0 s

 Time = 9600
Courant number mean: 0.01663117362 max: 0.02750231875
Gravity wave Courant number max: 0.4596478962
GAMG:  Solving for h, Initial residual = 0.0001993604582, Final residual = 3.584121308e-10, No Iterations 1
GAMG:  Solving for h, Initial residual = 1.22994142e-07, Final residual = 6.474001388e-13, No Iterations 1
ExecutionTime = 0.599483 s  ClockTime = 0 s

 Time = 9900
Courant number mean: 0.01663340805 max: 0.02751181925
Gravity wave Courant number max: 0.4596493883
GAMG:  Solving for h, Initial residual = 0.0002012767454, Final residual = 3.649321948e-10, No Iterations 1
GAMG:  Solving for h, Initial residual = 1.272436184e-07, Final residual = 6.727310682e-13, No Iterations 1
ExecutionTime = 0.620908 s  ClockTime = 0 s

 Time = 10200
Courant number mean: 0.01663563522 max: 0.02752072088
Gravity wave Courant number max: 0.459650749
GAMG:  Solving for h, Initial residual = 0.0002026180473, Final residual = 3.724314943e-10, No Iterations 1
GAMG:  Solving for h, Initial residual = 1.333553085e-07, Final residual = 6.849959856e-13, No Iterations 1
ExecutionTime = 0.641989 s  ClockTime = 0 s

 Time = 10500
Courant number mean: 0.01663787045 max: 0.02752843756
Gravity wave Courant number max: 0.4596520438
GAMG:  Solving for h, Initial residual = 0.0002035901089, Final residual = 3.740349159e-10, No Iterations 1
GAMG:  Solving for h, Initial residual = 1.371205827e-07, Final residual = 6.851599766e-13, No Iterations 1
ExecutionTime = 0.65479 s  ClockTime = 0 s

 Time = 10800
Courant number mean: 0.01664009006 max: 0.02753439463
Gravity wave Courant number max: 0.4596533474
GAMG:  Solving for h, Initial residual = 0.0002040939063, Final residual = 3.709734764e-10, No Iterations 1
GAMG:  Solving for h, Initial residual = 1.382269399e-07, Final residual = 6.768322886e-13, No Iterations 1
ExecutionTime = 0.668201 s  ClockTime = 0 s
End
