/*---------------------------------------------------------------------------*\
  =========                 |
  \\      /  F ield         | OpenFOAM: The Open Source CFD Toolbox
   \\    /   O peration     | Website:  https://openfoam.org
    \\  /    A nd           | Version:  13
     \\/     M anipulation  |
\*---------------------------------------------------------------------------*/
Build  : 13-441953dfbb42
Exec   : sumFields 3600 hTotal 3600 h constant h0
Date   : May 28 2026
Time   : 07:59:11
Host   : "uorc104p34"
PID    : 511278
I/O    : uncollated
Case   : /home/mq804938/OpenFOAM/mq804938-13/run/hilaryRun2_apr_26/shallowWater/sphere/WilliMountain/latLon_120x60/run_scheme_3/dt_1
nProcs : 1
sigFpe : Enabling floating point exception trapping (FOAM_SIGFPE).
fileModificationChecking : Monitoring run-time modified files using timeStampMaster (fileModificationSkew 10)
allowSystemOperations : Allowing user-supplied system call operations

// * * * * * * * * * * * * * * * * * * * * * * * * * * * * * * * * * * * * * //
Create time

Create mesh for time = 0 region "region0"
Writing 3600/"hTotal"
Min = 4994.389484 in cell 5491 max = 5959.850682 in cell 2713

/*---------------------------------------------------------------------------*\
  =========                 |
  \\      /  F ield         | OpenFOAM: The Open Source CFD Toolbox
   \\    /   O peration     | Website:  https://openfoam.org
    \\  /    A nd           | Version:  13
     \\/     M anipulation  |
\*---------------------------------------------------------------------------*/
Build  : 13-441953dfbb42
Exec   : writeCellDataLatLon -constant h0
Date   : May 28 2026
Time   : 07:59:11
Host   : "uorc104p34"
PID    : 511280
I/O    : uncollated
Case   : /home/mq804938/OpenFOAM/mq804938-13/run/hilaryRun2_apr_26/shallowWater/sphere/WilliMountain/latLon_120x60/run_scheme_3/dt_1
nProcs : 1
sigFpe : Enabling floating point exception trapping (FOAM_SIGFPE).
fileModificationChecking : Monitoring run-time modified files using timeStampMaster (fileModificationSkew 10)
allowSystemOperations : Allowing user-supplied system call operations

// * * * * * * * * * * * * * * * * * * * * * * * * * * * * * * * * * * * * * //
Create time

Create mesh for time = constant

Time = constant
Writing file "/home/mq804938/OpenFOAM/mq804938-13/run/hilaryRun2_apr_26/shallowWater/sphere/WilliMountain/latLon_120x60/run_scheme_3/dt_1/constant/h0.latLon"
Time = 1200
Writing file "/home/mq804938/OpenFOAM/mq804938-13/run/hilaryRun2_apr_26/shallowWater/sphere/WilliMountain/latLon_120x60/run_scheme_3/dt_1/1200/h0.latLon"
No h0
Time = 2400
Writing file "/home/mq804938/OpenFOAM/mq804938-13/run/hilaryRun2_apr_26/shallowWater/sphere/WilliMountain/latLon_120x60/run_scheme_3/dt_1/2400/h0.latLon"
No h0
Time = 3600
Writing file "/home/mq804938/OpenFOAM/mq804938-13/run/hilaryRun2_apr_26/shallowWater/sphere/WilliMountain/latLon_120x60/run_scheme_3/dt_1/3600/h0.latLon"
No h0

 end 
/*---------------------------------------------------------------------------*\
  =========                 |
  \\      /  F ield         | OpenFOAM: The Open Source CFD Toolbox
   \\    /   O peration     | Website:  https://openfoam.org
    \\  /    A nd           | Version:  13
     \\/     M anipulation  |
\*---------------------------------------------------------------------------*/
Build  : 13-441953dfbb42
Exec   : writeCellDataLatLon -time 3600 hTotal
Date   : May 28 2026
Time   : 07:59:11
Host   : "uorc104p34"
PID    : 511285
I/O    : uncollated
Case   : /home/mq804938/OpenFOAM/mq804938-13/run/hilaryRun2_apr_26/shallowWater/sphere/WilliMountain/latLon_120x60/run_scheme_3/dt_1
nProcs : 1
sigFpe : Enabling floating point exception trapping (FOAM_SIGFPE).
fileModificationChecking : Monitoring run-time modified files using timeStampMaster (fileModificationSkew 10)
allowSystemOperations : Allowing user-supplied system call operations

// * * * * * * * * * * * * * * * * * * * * * * * * * * * * * * * * * * * * * //
Create time

Create mesh for time = 3600

Time = 3600
Writing file "/home/mq804938/OpenFOAM/mq804938-13/run/hilaryRun2_apr_26/shallowWater/sphere/WilliMountain/latLon_120x60/run_scheme_3/dt_1/3600/hTotal.latLon"

 end 
/*---------------------------------------------------------------------------*\
  =========                 |
  \\      /  F ield         | OpenFOAM: The Open Source CFD Toolbox
   \\    /   O peration     | Website:  https://openfoam.org
    \\  /    A nd           | Version:  13
     \\/     M anipulation  |
\*---------------------------------------------------------------------------*/
Build  : 13-441953dfbb42
Exec   : writeCellDataLatLon -time 3600 U
Date   : May 28 2026
Time   : 07:59:11
Host   : "uorc104p34"
PID    : 511287
I/O    : uncollated
Case   : /home/mq804938/OpenFOAM/mq804938-13/run/hilaryRun2_apr_26/shallowWater/sphere/WilliMountain/latLon_120x60/run_scheme_3/dt_1
nProcs : 1
sigFpe : Enabling floating point exception trapping (FOAM_SIGFPE).
fileModificationChecking : Monitoring run-time modified files using timeStampMaster (fileModificationSkew 10)
allowSystemOperations : Allowing user-supplied system call operations

// * * * * * * * * * * * * * * * * * * * * * * * * * * * * * * * * * * * * * //
Create time

Create mesh for time = 3600

Time = 3600
Writing file "/home/mq804938/OpenFOAM/mq804938-13/run/hilaryRun2_apr_26/shallowWater/sphere/WilliMountain/latLon_120x60/run_scheme_3/dt_1/3600/U.latLon"

 end 
Input files: 3600/hU.ps
Processing: 3600/hU.ps
Rendering with existing %%BoundingBox: 0 0 595 842
Calculating Bounding Box...ready. %%BoundingBox: 212 37 542 617
Creating output file 3600/hU.eps ... ready.
