/*---------------------------------------------------------------------------*\
  =========                 |
  \\      /  F ield         | OpenFOAM: The Open Source CFD Toolbox
   \\    /   O peration     | Website:  https://openfoam.org
    \\  /    A nd           | Version:  13
     \\/     M anipulation  |
\*---------------------------------------------------------------------------*/
Build  : 13-441953dfbb42
Exec   : CgridShallowWaterFoamSplit -2
Date   : May 27 2026
Time   : 14:44:58
Host   : "uorc104p34"
PID    : 505860
I/O    : uncollated
Case   : /home/mq804938/OpenFOAM/mq804938-13/run/hilaryRun2_apr_26/shallowWater/sphere/WilliMountain/latLon_120x60/run_scheme_2
nProcs : 1
sigFpe : Enabling floating point exception trapping (FOAM_SIGFPE).
fileModificationChecking : Monitoring run-time modified files using timeStampMaster (fileModificationSkew 10)
allowSystemOperations : Allowing user-supplied system call operations

// * * * * * * * * * * * * * * * * * * * * * * * * * * * * * * * * * * * * * //
Create time

Create mesh for time = 0


Reading earthProperties
Reading field h0 (mountain heights) if present

Mountain height from 0 to 1820.568544
Creating Coriolis Force
Reading field h

Reading in velocity field Uf (velocity on face)


Starting time loop


 Time = 300
Courant number mean: 0.01657840186 max: 0.02745629775
Gravity wave Courant number max: 0.4596360678
GAMG:  Solving for Ux, Initial residual = 0.0003703085695, Final residual = 1.310854426e-15, No Iterations 1
GAMG:  Solving for Uy, Initial residual = 0.0003619276125, Final residual = 2.09493674e-15, No Iterations 1
GAMG:  Solving for Uz, Initial residual = 0.9999999887, Final residual = 1.230405284e-11, No Iterations 1
GAMG:  Solving for h, Initial residual = 0.0002981444978, Final residual = 3.565078101e-09, No Iterations 1
GAMG:  Solving for Ux, Initial residual = 1.774884654e-05, Final residual = 4.244008121e-16, No Iterations 1
GAMG:  Solving for Uy, Initial residual = 7.253421065e-06, Final residual = 2.253504434e-15, No Iterations 1
GAMG:  Solving for Uz, Initial residual = 0.0004423145387, Final residual = 4.865120461e-14, No Iterations 1
GAMG:  Solving for h, Initial residual = 4.301740383e-08, Final residual = 6.930406672e-13, No Iterations 1
ExecutionTime = 0.064184 s  ClockTime = 0 s

 Time = 600
Courant number mean: 0.01657842623 max: 0.02745572902
Gravity wave Courant number max: 0.4596319568
GAMG:  Solving for Ux, Initial residual = 0.0003794089268, Final residual = 8.10051828e-15, No Iterations 1
GAMG:  Solving for Uy, Initial residual = 0.0003626032937, Final residual = 1.994532054e-15, No Iterations 1
GAMG:  Solving for Uz, Initial residual = 0.3364565425, Final residual = 6.848594812e-12, No Iterations 1
GAMG:  Solving for h, Initial residual = 0.0002893372298, Final residual = 3.122197995e-09, No Iterations 1
GAMG:  Solving for Ux, Initial residual = 1.746363428e-05, Final residual = 4.191712437e-16, No Iterations 1
GAMG:  Solving for Uy, Initial residual = 7.11372753e-06, Final residual = 2.202128677e-15, No Iterations 1
GAMG:  Solving for Uz, Initial residual = 0.0003580971388, Final residual = 2.90521587e-14, No Iterations 1
GAMG:  Solving for h, Initial residual = 5.979495473e-08, Final residual = 7.313416504e-13, No Iterations 1
ExecutionTime = 0.100955 s  ClockTime = 0 s

 Time = 900
Courant number mean: 0.01657845083 max: 0.02745472185
Gravity wave Courant number max: 0.4596286863
GAMG:  Solving for Ux, Initial residual = 0.0003942182758, Final residual = 1.477682526e-14, No Iterations 1
GAMG:  Solving for Uy, Initial residual = 0.0003656384614, Final residual = 2.606689273e-15, No Iterations 1
GAMG:  Solving for Uz, Initial residual = 0.2062578639, Final residual = 5.760548688e-12, No Iterations 1
GAMG:  Solving for h, Initial residual = 0.0002803706347, Final residual = 2.7313915e-09, No Iterations 1
GAMG:  Solving for Ux, Initial residual = 1.712896252e-05, Final residual = 5.392043684e-16, No Iterations 1
GAMG:  Solving for Uy, Initial residual = 7.006093067e-06, Final residual = 2.217174927e-15, No Iterations 1
GAMG:  Solving for Uz, Initial residual = 0.0003395903343, Final residual = 2.835686474e-14, No Iterations 1
GAMG:  Solving for h, Initial residual = 7.500524486e-08, Final residual = 7.703803505e-13, No Iterations 1
ExecutionTime = 0.137851 s  ClockTime = 0 s

 Time = 1200
Courant number mean: 0.01657847561 max: 0.02745334641
Gravity wave Courant number max: 0.4596261725
GAMG:  Solving for Ux, Initial residual = 0.000408923663, Final residual = 2.229796951e-14, No Iterations 1
GAMG:  Solving for Uy, Initial residual = 0.0003692318715, Final residual = 3.920761259e-15, No Iterations 1
GAMG:  Solving for Uz, Initial residual = 0.1504706871, Final residual = 5.620695775e-12, No Iterations 1
GAMG:  Solving for h, Initial residual = 0.0002710960102, Final residual = 2.38295523e-09, No Iterations 1
GAMG:  Solving for Ux, Initial residual = 1.678259536e-05, Final residual = 8.947013738e-16, No Iterations 1
GAMG:  Solving for Uy, Initial residual = 6.945171029e-06, Final residual = 2.318961112e-15, No Iterations 1
GAMG:  Solving for Uz, Initial residual = 0.0003261166818, Final residual = 3.936548515e-14, No Iterations 1
GAMG:  Solving for h, Initial residual = 8.756482885e-08, Final residual = 7.984926099e-13, No Iterations 1
ExecutionTime = 0.175637 s  ClockTime = 0 s

 Time = 1500
Courant number mean: 0.0165785005 max: 0.02745169723
Gravity wave Courant number max: 0.4596242997
GAMG:  Solving for Ux, Initial residual = 0.0004230544496, Final residual = 3.220322435e-14, No Iterations 1
GAMG:  Solving for Uy, Initial residual = 0.0003729895215, Final residual = 6.183999546e-15, No Iterations 1
GAMG:  Solving for Uz, Initial residual = 0.1192078292, Final residual = 6.182334038e-12, No Iterations 1
GAMG:  Solving for h, Initial residual = 0.0002614800893, Final residual = 2.07362126e-09, No Iterations 1
GAMG:  Solving for Ux, Initial residual = 1.63884921e-05, Final residual = 1.593433557e-15, No Iterations 1
GAMG:  Solving for Uy, Initial residual = 6.898267226e-06, Final residual = 2.50872191e-15, No Iterations 1
GAMG:  Solving for Uz, Initial residual = 0.0003131970929, Final residual = 6.288658476e-14, No Iterations 1
GAMG:  Solving for h, Initial residual = 9.664606649e-08, Final residual = 8.162565294e-13, No Iterations 1
ExecutionTime = 0.216656 s  ClockTime = 0 s

 Time = 1800
Courant number mean: 0.01657852544 max: 0.02744988604
Gravity wave Courant number max: 0.4596229262
GAMG:  Solving for Ux, Initial residual = 0.0004364569583, Final residual = 4.633080739e-14, No Iterations 1
GAMG:  Solving for Uy, Initial residual = 0.0003769878228, Final residual = 9.974439139e-15, No Iterations 1
GAMG:  Solving for Uz, Initial residual = 0.09911730289, Final residual = 7.412271357e-12, No Iterations 1
GAMG:  Solving for h, Initial residual = 0.0002515681836, Final residual = 1.799854637e-09, No Iterations 1
GAMG:  Solving for Ux, Initial residual = 1.593027195e-05, Final residual = 2.65037415e-15, No Iterations 1
GAMG:  Solving for Uy, Initial residual = 6.849015251e-06, Final residual = 2.776301845e-15, No Iterations 1
GAMG:  Solving for Uz, Initial residual = 0.0003009153754, Final residual = 9.940509042e-14, No Iterations 1
GAMG:  Solving for h, Initial residual = 1.018117835e-07, Final residual = 8.212957849e-13, No Iterations 1
ExecutionTime = 0.251878 s  ClockTime = 0 s

 Time = 2100
Courant number mean: 0.01657855036 max: 0.02744803381
Gravity wave Courant number max: 0.4596218921
GAMG:  Solving for Ux, Initial residual = 0.0004491590358, Final residual = 6.642885077e-14, No Iterations 1
GAMG:  Solving for Uy, Initial residual = 0.0003807363208, Final residual = 1.581161077e-14, No Iterations 1
GAMG:  Solving for Uz, Initial residual = 0.08513149068, Final residual = 9.25384202e-12, No Iterations 1
GAMG:  Solving for h, Initial residual = 0.0002420803262, Final residual = 1.562094922e-09, No Iterations 1
GAMG:  Solving for Ux, Initial residual = 1.542107915e-05, Final residual = 3.997504563e-15, No Iterations 1
GAMG:  Solving for Uy, Initial residual = 6.80226953e-06, Final residual = 3.078139389e-15, No Iterations 1
GAMG:  Solving for Uz, Initial residual = 0.0002892860812, Final residual = 1.476687859e-13, No Iterations 1
GAMG:  Solving for h, Initial residual = 1.035651304e-07, Final residual = 8.309362258e-13, No Iterations 1
ExecutionTime = 0.284356 s  ClockTime = 0 s

 Time = 2400
Courant number mean: 0.01657857518 max: 0.02744626243
Gravity wave Courant number max: 0.4596210267
GAMG:  Solving for Ux, Initial residual = 0.0004607200021, Final residual = 9.35036035e-14, No Iterations 1
GAMG:  Solving for Uy, Initial residual = 0.0003841047258, Final residual = 2.404284034e-14, No Iterations 1
GAMG:  Solving for Uz, Initial residual = 0.0747832268, Final residual = 1.158783227e-11, No Iterations 1
GAMG:  Solving for h, Initial residual = 0.0002326257488, Final residual = 1.361236331e-09, No Iterations 1
GAMG:  Solving for Ux, Initial residual = 1.490367367e-05, Final residual = 5.510840077e-15, No Iterations 1
GAMG:  Solving for Uy, Initial residual = 6.788357765e-06, Final residual = 3.400109067e-15, No Iterations 1
GAMG:  Solving for Uz, Initial residual = 0.000277982153, Final residual = 2.047537813e-13, No Iterations 1
GAMG:  Solving for h, Initial residual = 1.026382412e-07, Final residual = 8.4844823e-13, No Iterations 1
ExecutionTime = 0.31371 s  ClockTime = 1 s

 Time = 2700
Courant number mean: 0.01657859985 max: 0.02744468669
Gravity wave Courant number max: 0.4596201566
GAMG:  Solving for Ux, Initial residual = 0.0004708859257, Final residual = 1.273206513e-13, No Iterations 1
GAMG:  Solving for Uy, Initial residual = 0.000387245026, Final residual = 3.469647712e-14, No Iterations 1
GAMG:  Solving for Uz, Initial residual = 0.06678312947, Final residual = 1.417954028e-11, No Iterations 1
GAMG:  Solving for h, Initial residual = 0.0002234434862, Final residual = 1.198422371e-09, No Iterations 1
GAMG:  Solving for Ux, Initial residual = 1.434123773e-05, Final residual = 7.015464709e-15, No Iterations 1
GAMG:  Solving for Uy, Initial residual = 6.779562617e-06, Final residual = 3.878375605e-15, No Iterations 1
GAMG:  Solving for Uz, Initial residual = 0.0002665615695, Final residual = 2.665945883e-13, No Iterations 1
GAMG:  Solving for h, Initial residual = 1.005329151e-07, Final residual = 8.82837978e-13, No Iterations 1
ExecutionTime = 0.360087 s  ClockTime = 1 s

 Time = 3000
Courant number mean: 0.01657862432 max: 0.02744340714
Gravity wave Courant number max: 0.459619114
GAMG:  Solving for Ux, Initial residual = 0.0004798840825, Final residual = 1.672711757e-13, No Iterations 1
GAMG:  Solving for Uy, Initial residual = 0.0003900079946, Final residual = 4.870859334e-14, No Iterations 1
GAMG:  Solving for Uz, Initial residual = 0.06039837134, Final residual = 1.675030616e-11, No Iterations 1
GAMG:  Solving for h, Initial residual = 0.000214185362, Final residual = 1.061853628e-09, No Iterations 1
GAMG:  Solving for Ux, Initial residual = 1.375543549e-05, Final residual = 9.213427829e-15, No Iterations 1
GAMG:  Solving for Uy, Initial residual = 6.796980874e-06, Final residual = 4.611318479e-15, No Iterations 1
GAMG:  Solving for Uz, Initial residual = 0.0002551490416, Final residual = 3.288916843e-13, No Iterations 1
GAMG:  Solving for h, Initial residual = 1.002158884e-07, Final residual = 9.258925396e-13, No Iterations 1
ExecutionTime = 0.396254 s  ClockTime = 1 s

 Time = 3300
Courant number mean: 0.01657864856 max: 0.02744250426
Gravity wave Courant number max: 0.4596177436
GAMG:  Solving for Ux, Initial residual = 0.0004877072443, Final residual = 2.120995041e-13, No Iterations 1
GAMG:  Solving for Uy, Initial residual = 0.0003923880095, Final residual = 6.561847387e-14, No Iterations 1
GAMG:  Solving for Uz, Initial residual = 0.05515774747, Final residual = 1.911899256e-11, No Iterations 1
GAMG:  Solving for h, Initial residual = 0.0002068041496, Final residual = 9.437825328e-10, No Iterations 1
GAMG:  Solving for Ux, Initial residual = 1.31809264e-05, Final residual = 1.382120864e-14, No Iterations 1
GAMG:  Solving for Uy, Initial residual = 6.850266295e-06, Final residual = 5.805262543e-15, No Iterations 1
GAMG:  Solving for Uz, Initial residual = 0.0002436755834, Final residual = 3.904033035e-13, No Iterations 1
GAMG:  Solving for h, Initial residual = 1.007341158e-07, Final residual = 9.806284991e-13, No Iterations 1
ExecutionTime = 0.432606 s  ClockTime = 1 s

 Time = 3600
Courant number mean: 0.01657867256 max: 0.02744203441
Gravity wave Courant number max: 0.4596159102
GAMG:  Solving for Ux, Initial residual = 0.000494252567, Final residual = 2.605984314e-13, No Iterations 1
GAMG:  Solving for Uy, Initial residual = 0.0003945316006, Final residual = 8.48240071e-14, No Iterations 1
GAMG:  Solving for Uz, Initial residual = 0.05077032375, Final residual = 2.10018059e-11, No Iterations 1
GAMG:  Solving for h, Initial residual = 0.0001998831533, Final residual = 8.434421081e-10, No Iterations 1
GAMG:  Solving for Ux, Initial residual = 1.25859168e-05, Final residual = 1.956479875e-14, No Iterations 1
GAMG:  Solving for Uy, Initial residual = 6.897099896e-06, Final residual = 7.355784919e-15, No Iterations 1
GAMG:  Solving for Uz, Initial residual = 0.0002322238122, Final residual = 4.503127374e-13, No Iterations 1
GAMG:  Solving for h, Initial residual = 1.034259161e-07, Final residual = 1.04476789e-12, No Iterations 1
ExecutionTime = 0.470995 s  ClockTime = 1 s

 Time = 3900
Courant number mean: 0.01657869629 max: 0.02744202772
Gravity wave Courant number max: 0.4596135035
GAMG:  Solving for Ux, Initial residual = 0.0004998268999, Final residual = 3.18205369e-13, No Iterations 1
GAMG:  Solving for Uy, Initial residual = 0.0003962701375, Final residual = 1.054371037e-13, No Iterations 1
GAMG:  Solving for Uz, Initial residual = 0.04702646607, Final residual = 2.280016033e-11, No Iterations 1
GAMG:  Solving for h, Initial residual = 0.0001930856597, Final residual = 7.535306964e-10, No Iterations 1
GAMG:  Solving for Ux, Initial residual = 1.199506111e-05, Final residual = 2.584449118e-14, No Iterations 1
GAMG:  Solving for Uy, Initial residual = 6.939944572e-06, Final residual = 9.10172025e-15, No Iterations 1
GAMG:  Solving for Uz, Initial residual = 0.0002208272066, Final residual = 5.069049035e-13, No Iterations 1
GAMG:  Solving for h, Initial residual = 1.07958764e-07, Final residual = 1.122903321e-12, No Iterations 1
ExecutionTime = 0.51738 s  ClockTime = 1 s

 Time = 4200
Courant number mean: 0.01657871979 max: 0.02744248817
Gravity wave Courant number max: 0.4596104429
GAMG:  Solving for Ux, Initial residual = 0.0005042827448, Final residual = 3.869702412e-13, No Iterations 1
GAMG:  Solving for Uy, Initial residual = 0.000397467905, Final residual = 1.319597254e-13, No Iterations 1
GAMG:  Solving for Uz, Initial residual = 0.04380585886, Final residual = 2.569381365e-11, No Iterations 1
GAMG:  Solving for h, Initial residual = 0.0001861586968, Final residual = 7.002048103e-10, No Iterations 1
GAMG:  Solving for Ux, Initial residual = 1.1438872e-05, Final residual = 3.142366789e-14, No Iterations 1
GAMG:  Solving for Uy, Initial residual = 6.982011577e-06, Final residual = 1.113793148e-14, No Iterations 1
GAMG:  Solving for Uz, Initial residual = 0.0002094837435, Final residual = 5.779013392e-13, No Iterations 1
GAMG:  Solving for h, Initial residual = 1.143937954e-07, Final residual = 1.211716984e-12, No Iterations 1
ExecutionTime = 0.552629 s  ClockTime = 1 s

 Time = 4500
Courant number mean: 0.01657874306 max: 0.02744339573
Gravity wave Courant number max: 0.4596066799
GAMG:  Solving for Ux, Initial residual = 0.0005073269732, Final residual = 4.825282941e-13, No Iterations 1
GAMG:  Solving for Uy, Initial residual = 0.0003982469183, Final residual = 1.701839485e-13, No Iterations 1
GAMG:  Solving for Uz, Initial residual = 0.04097910865, Final residual = 2.892738425e-11, No Iterations 1
GAMG:  Solving for h, Initial residual = 0.0001796883727, Final residual = 6.976132492e-10, No Iterations 1
GAMG:  Solving for Ux, Initial residual = 1.090919366e-05, Final residual = 3.531764107e-14, No Iterations 1
GAMG:  Solving for Uy, Initial residual = 7.022115973e-06, Final residual = 1.30592236e-14, No Iterations 1
GAMG:  Solving for Uz, Initial residual = 0.0001980542345, Final residual = 6.488825798e-13, No Iterations 1
GAMG:  Solving for h, Initial residual = 1.212911652e-07, Final residual = 1.289530749e-12, No Iterations 1
ExecutionTime = 0.587978 s  ClockTime = 1 s

 Time = 4800
Courant number mean: 0.01657876615 max: 0.02744471033
Gravity wave Courant number max: 0.4596021999
GAMG:  Solving for Ux, Initial residual = 0.0005090839817, Final residual = 5.85689721e-13, No Iterations 1
GAMG:  Solving for Uy, Initial residual = 0.0003985818314, Final residual = 2.119744539e-13, No Iterations 1
GAMG:  Solving for Uz, Initial residual = 0.03847828716, Final residual = 3.203985377e-11, No Iterations 1
GAMG:  Solving for h, Initial residual = 0.000174455071, Final residual = 7.202072729e-10, No Iterations 1
GAMG:  Solving for Ux, Initial residual = 1.047763198e-05, Final residual = 3.790757044e-14, No Iterations 1
GAMG:  Solving for Uy, Initial residual = 7.065642363e-06, Final residual = 1.464557151e-14, No Iterations 1
GAMG:  Solving for Uz, Initial residual = 0.0001868535919, Final residual = 7.065721776e-13, No Iterations 1
GAMG:  Solving for h, Initial residual = 1.27642382e-07, Final residual = 1.350467885e-12, No Iterations 1
ExecutionTime = 0.621864 s  ClockTime = 1 s

 Time = 5100
Courant number mean: 0.01657878912 max: 0.02744637732
Gravity wave Courant number max: 0.4595970214
GAMG:  Solving for Ux, Initial residual = 0.000509867311, Final residual = 6.908683956e-13, No Iterations 1
GAMG:  Solving for Uy, Initial residual = 0.0003985226013, Final residual = 2.575483797e-13, No Iterations 1
GAMG:  Solving for Uz, Initial residual = 0.03625666554, Final residual = 3.435771316e-11, No Iterations 1
GAMG:  Solving for h, Initial residual = 0.0001757571381, Final residual = 7.362881587e-10, No Iterations 1
GAMG:  Solving for Ux, Initial residual = 1.0321199e-05, Final residual = 4.07084384e-14, No Iterations 1
GAMG:  Solving for Uy, Initial residual = 7.126071902e-06, Final residual = 1.651255052e-14, No Iterations 1
GAMG:  Solving for Uz, Initial residual = 0.0001758039778, Final residual = 7.560092461e-13, No Iterations 1
GAMG:  Solving for h, Initial residual = 1.332924393e-07, Final residual = 1.394540084e-12, No Iterations 1
ExecutionTime = 0.665867 s  ClockTime = 1 s

 Time = 5400
Courant number mean: 0.01657881203 max: 0.02744833404
Gravity wave Courant number max: 0.4595911941
GAMG:  Solving for Ux, Initial residual = 0.0005095624011, Final residual = 7.983903831e-13, No Iterations 1
GAMG:  Solving for Uy, Initial residual = 0.0003981677888, Final residual = 3.062034954e-13, No Iterations 1
GAMG:  Solving for Uz, Initial residual = 0.03425445937, Final residual = 3.591071271e-11, No Iterations 1
GAMG:  Solving for h, Initial residual = 0.0001849700577, Final residual = 7.415513616e-10, No Iterations 1
GAMG:  Solving for Ux, Initial residual = 1.069255183e-05, Final residual = 4.80673964e-14, No Iterations 1
GAMG:  Solving for Uy, Initial residual = 7.215121227e-06, Final residual = 1.891398921e-14, No Iterations 1
GAMG:  Solving for Uz, Initial residual = 0.0001652134882, Final residual = 8.040435999e-13, No Iterations 1
GAMG:  Solving for h, Initial residual = 1.370361292e-07, Final residual = 1.418002366e-12, No Iterations 1
ExecutionTime = 0.697577 s  ClockTime = 1 s

 Time = 5700
Courant number mean: 0.01657883495 max: 0.0274505167
Gravity wave Courant number max: 0.459584796
GAMG:  Solving for Ux, Initial residual = 0.0005079585255, Final residual = 8.963503509e-13, No Iterations 1
GAMG:  Solving for Uy, Initial residual = 0.0003974811976, Final residual = 3.526019403e-13, No Iterations 1
GAMG:  Solving for Uz, Initial residual = 0.03243976933, Final residual = 3.674155771e-11, No Iterations 1
GAMG:  Solving for h, Initial residual = 0.0001939186186, Final residual = 7.35660705e-10, No Iterations 1
GAMG:  Solving for Ux, Initial residual = 1.144144424e-05, Final residual = 6.0705729e-14, No Iterations 1
GAMG:  Solving for Uy, Initial residual = 7.362504617e-06, Final residual = 2.206811976e-14, No Iterations 1
GAMG:  Solving for Uz, Initial residual = 0.0001547500869, Final residual = 8.386141278e-13, No Iterations 1
GAMG:  Solving for h, Initial residual = 1.392111713e-07, Final residual = 1.423994993e-12, No Iterations 1
ExecutionTime = 0.726547 s  ClockTime = 1 s

 Time = 6000
Courant number mean: 0.01657885798 max: 0.02745286718
Gravity wave Courant number max: 0.4595779287
GAMG:  Solving for Ux, Initial residual = 0.0005051629003, Final residual = 9.828272192e-13, No Iterations 1
GAMG:  Solving for Uy, Initial residual = 0.0003966256599, Final residual = 4.030436167e-13, No Iterations 1
GAMG:  Solving for Uz, Initial residual = 0.03078639445, Final residual = 3.634673428e-11, No Iterations 1
GAMG:  Solving for h, Initial residual = 0.0002018363816, Final residual = 7.218706235e-10, No Iterations 1
GAMG:  Solving for Ux, Initial residual = 1.21449238e-05, Final residual = 7.547358506e-14, No Iterations 1
GAMG:  Solving for Uy, Initial residual = 7.519607917e-06, Final residual = 2.528250517e-14, No Iterations 1
GAMG:  Solving for Uz, Initial residual = 0.0001448042773, Final residual = 8.553917717e-13, No Iterations 1
GAMG:  Solving for h, Initial residual = 1.401417573e-07, Final residual = 1.423553612e-12, No Iterations 1
ExecutionTime = 0.753882 s  ClockTime = 1 s

 Time = 6300
Courant number mean: 0.01657888118 max: 0.02745533893
Gravity wave Courant number max: 0.459570712
GAMG:  Solving for Ux, Initial residual = 0.0005018604916, Final residual = 1.053036808e-12, No Iterations 1
GAMG:  Solving for Uy, Initial residual = 0.0003957560283, Final residual = 4.609247314e-13, No Iterations 1
GAMG:  Solving for Uz, Initial residual = 0.02926838866, Final residual = 3.633290767e-11, No Iterations 1
GAMG:  Solving for h, Initial residual = 0.0002087127685, Final residual = 7.009609298e-10, No Iterations 1
GAMG:  Solving for Ux, Initial residual = 1.276900913e-05, Final residual = 9.125925438e-14, No Iterations 1
GAMG:  Solving for Uy, Initial residual = 7.663511812e-06, Final residual = 2.871714868e-14, No Iterations 1
GAMG:  Solving for Uz, Initial residual = 0.0001357021139, Final residual = 8.677488458e-13, No Iterations 1
GAMG:  Solving for h, Initial residual = 1.407416987e-07, Final residual = 1.410390967e-12, No Iterations 1
ExecutionTime = 0.783709 s  ClockTime = 1 s

 Time = 6600
Courant number mean: 0.01657890465 max: 0.02745790151
Gravity wave Courant number max: 0.4595632778
GAMG:  Solving for Ux, Initial residual = 0.0004979615378, Final residual = 1.114132358e-12, No Iterations 1
GAMG:  Solving for Uy, Initial residual = 0.0003949106966, Final residual = 5.236617931e-13, No Iterations 1
GAMG:  Solving for Uz, Initial residual = 0.0278681445, Final residual = 3.782397052e-11, No Iterations 1
GAMG:  Solving for h, Initial residual = 0.0002141532096, Final residual = 6.74811548e-10, No Iterations 1
GAMG:  Solving for Ux, Initial residual = 1.330073242e-05, Final residual = 1.068793639e-13, No Iterations 1
GAMG:  Solving for Uy, Initial residual = 7.792320842e-06, Final residual = 3.222823466e-14, No Iterations 1
GAMG:  Solving for Uz, Initial residual = 0.00012746793, Final residual = 8.97382327e-13, No Iterations 1
GAMG:  Solving for h, Initial residual = 1.408414217e-07, Final residual = 1.386393404e-12, No Iterations 1
ExecutionTime = 0.807362 s  ClockTime = 1 s

 Time = 6900
Courant number mean: 0.01657892843 max: 0.02746054329
Gravity wave Courant number max: 0.4595557639
GAMG:  Solving for Ux, Initial residual = 0.0004939967461, Final residual = 1.16706889e-12, No Iterations 1
GAMG:  Solving for Uy, Initial residual = 0.0003940192125, Final residual = 5.912278346e-13, No Iterations 1
GAMG:  Solving for Uz, Initial residual = 0.02657670203, Final residual = 4.181595099e-11, No Iterations 1
GAMG:  Solving for h, Initial residual = 0.0002183495461, Final residual = 6.437068924e-10, No Iterations 1
GAMG:  Solving for Ux, Initial residual = 1.37430518e-05, Final residual = 1.227114406e-13, No Iterations 1
GAMG:  Solving for Uy, Initial residual = 7.907453732e-06, Final residual = 3.619132075e-14, No Iterations 1
GAMG:  Solving for Uz, Initial residual = 0.0001202324665, Final residual = 9.633867098e-13, No Iterations 1
GAMG:  Solving for h, Initial residual = 1.415606795e-07, Final residual = 1.354534544e-12, No Iterations 1
ExecutionTime = 0.829699 s  ClockTime = 1 s

 Time = 7200
Courant number mean: 0.01657895257 max: 0.02746327188
Gravity wave Courant number max: 0.4595483073
GAMG:  Solving for Ux, Initial residual = 0.0004907238478, Final residual = 1.238226781e-12, No Iterations 1
GAMG:  Solving for Uy, Initial residual = 0.0003932100531, Final residual = 6.666271558e-13, No Iterations 1
GAMG:  Solving for Uz, Initial residual = 0.02538631299, Final residual = 4.544586776e-11, No Iterations 1
GAMG:  Solving for h, Initial residual = 0.000221514499, Final residual = 6.116375809e-10, No Iterations 1
GAMG:  Solving for Ux, Initial residual = 1.409953199e-05, Final residual = 1.365558833e-13, No Iterations 1
GAMG:  Solving for Uy, Initial residual = 8.010064e-06, Final residual = 3.979774787e-14, No Iterations 1
GAMG:  Solving for Uz, Initial residual = 0.0001136426385, Final residual = 1.061236492e-12, No Iterations 1
GAMG:  Solving for h, Initial residual = 1.430900519e-07, Final residual = 1.322192213e-12, No Iterations 1
ExecutionTime = 0.851309 s  ClockTime = 1 s

 Time = 7500
Courant number mean: 0.01657897709 max: 0.02746611248
Gravity wave Courant number max: 0.4595410379
GAMG:  Solving for Ux, Initial residual = 0.0004883431483, Final residual = 1.348418821e-12, No Iterations 1
GAMG:  Solving for Uy, Initial residual = 0.0003927007561, Final residual = 7.45587582e-13, No Iterations 1
GAMG:  Solving for Uz, Initial residual = 0.02429306019, Final residual = 4.857173716e-11, No Iterations 1
GAMG:  Solving for h, Initial residual = 0.0002247678627, Final residual = 5.825911626e-10, No Iterations 1
GAMG:  Solving for Ux, Initial residual = 1.43916062e-05, Final residual = 1.487316363e-13, No Iterations 1
GAMG:  Solving for Uy, Initial residual = 8.098067186e-06, Final residual = 4.324434444e-14, No Iterations 1
GAMG:  Solving for Uz, Initial residual = 0.0001080572041, Final residual = 1.172696079e-12, No Iterations 1
GAMG:  Solving for h, Initial residual = 1.456845826e-07, Final residual = 1.290881283e-12, No Iterations 1
ExecutionTime = 0.87828 s  ClockTime = 1 s

 Time = 7800
Courant number mean: 0.01657900196 max: 0.02746910382
Gravity wave Courant number max: 0.4595340729
GAMG:  Solving for Ux, Initial residual = 0.0004865410371, Final residual = 1.481583387e-12, No Iterations 1
GAMG:  Solving for Uy, Initial residual = 0.0003925400897, Final residual = 8.277152555e-13, No Iterations 1
GAMG:  Solving for Uz, Initial residual = 0.02328318944, Final residual = 5.328462207e-11, No Iterations 1
GAMG:  Solving for h, Initial residual = 0.000228925974, Final residual = 5.614914082e-10, No Iterations 1
GAMG:  Solving for Ux, Initial residual = 1.467319586e-05, Final residual = 1.595728689e-13, No Iterations 1
GAMG:  Solving for Uy, Initial residual = 8.194525467e-06, Final residual = 4.675720211e-14, No Iterations 1
GAMG:  Solving for Uz, Initial residual = 0.0001035763416, Final residual = 1.269007407e-12, No Iterations 1
GAMG:  Solving for h, Initial residual = 1.48051579e-07, Final residual = 1.269884925e-12, No Iterations 1
ExecutionTime = 0.897762 s  ClockTime = 1 s

 Time = 8100
Courant number mean: 0.01657902712 max: 0.02747229236
Gravity wave Courant number max: 0.4595275121
GAMG:  Solving for Ux, Initial residual = 0.000484865502, Final residual = 1.639615557e-12, No Iterations 1
GAMG:  Solving for Uy, Initial residual = 0.0003925610074, Final residual = 9.105738656e-13, No Iterations 1
GAMG:  Solving for Uz, Initial residual = 0.02235003384, Final residual = 5.885579552e-11, No Iterations 1
GAMG:  Solving for h, Initial residual = 0.0002329663928, Final residual = 5.4567945e-10, No Iterations 1
GAMG:  Solving for Ux, Initial residual = 1.50007834e-05, Final residual = 1.688215972e-13, No Iterations 1
GAMG:  Solving for Uy, Initial residual = 8.303618757e-06, Final residual = 5.020108733e-14, No Iterations 1
GAMG:  Solving for Uz, Initial residual = 9.972155913e-05, Final residual = 1.335126676e-12, No Iterations 1
GAMG:  Solving for h, Initial residual = 1.504783633e-07, Final residual = 1.251539642e-12, No Iterations 1
ExecutionTime = 0.916276 s  ClockTime = 1 s

 Time = 8400
Courant number mean: 0.01657905247 max: 0.02747572495
Gravity wave Courant number max: 0.4595214336
GAMG:  Solving for Ux, Initial residual = 0.0004831480003, Final residual = 1.809745955e-12, No Iterations 1
GAMG:  Solving for Uy, Initial residual = 0.0003926505206, Final residual = 9.92806981e-13, No Iterations 1
GAMG:  Solving for Uz, Initial residual = 0.02153916542, Final residual = 6.298898093e-11, No Iterations 1
GAMG:  Solving for h, Initial residual = 0.0002361654716, Final residual = 5.338051678e-10, No Iterations 1
GAMG:  Solving for Ux, Initial residual = 1.532455254e-05, Final residual = 1.760588555e-13, No Iterations 1
GAMG:  Solving for Uy, Initial residual = 8.434101009e-06, Final residual = 5.319421522e-14, No Iterations 1
GAMG:  Solving for Uz, Initial residual = 9.632012475e-05, Final residual = 1.374029456e-12, No Iterations 1
GAMG:  Solving for h, Initial residual = 1.52489513e-07, Final residual = 1.233900189e-12, No Iterations 1
ExecutionTime = 0.934398 s  ClockTime = 1 s

 Time = 8700
Courant number mean: 0.01657907787 max: 0.02747944073
Gravity wave Courant number max: 0.4595158914
GAMG:  Solving for Ux, Initial residual = 0.000481239182, Final residual = 1.977599816e-12, No Iterations 1
GAMG:  Solving for Uy, Initial residual = 0.0003930123524, Final residual = 1.070771677e-12, No Iterations 1
GAMG:  Solving for Uz, Initial residual = 0.02080923666, Final residual = 6.718807428e-11, No Iterations 1
GAMG:  Solving for h, Initial residual = 0.0002386595692, Final residual = 5.218244876e-10, No Iterations 1
GAMG:  Solving for Ux, Initial residual = 1.557077192e-05, Final residual = 1.819474935e-13, No Iterations 1
GAMG:  Solving for Uy, Initial residual = 8.555000898e-06, Final residual = 5.57098985e-14, No Iterations 1
GAMG:  Solving for Uz, Initial residual = 9.363507574e-05, Final residual = 1.397588256e-12, No Iterations 1
GAMG:  Solving for h, Initial residual = 1.534296345e-07, Final residual = 1.216088135e-12, No Iterations 1
ExecutionTime = 0.963589 s  ClockTime = 1 s

 Time = 9000
Courant number mean: 0.01657910312 max: 0.02748346291
Gravity wave Courant number max: 0.4595109135
GAMG:  Solving for Ux, Initial residual = 0.0004796033887, Final residual = 2.129570722e-12, No Iterations 1
GAMG:  Solving for Uy, Initial residual = 0.000393500736, Final residual = 1.148128974e-12, No Iterations 1
GAMG:  Solving for Uz, Initial residual = 0.02014395812, Final residual = 7.039413982e-11, No Iterations 1
GAMG:  Solving for h, Initial residual = 0.0002405451594, Final residual = 5.071829775e-10, No Iterations 1
GAMG:  Solving for Ux, Initial residual = 1.572817e-05, Final residual = 1.870274528e-13, No Iterations 1
GAMG:  Solving for Uy, Initial residual = 8.660634277e-06, Final residual = 5.828003642e-14, No Iterations 1
GAMG:  Solving for Uz, Initial residual = 9.113254985e-05, Final residual = 1.395192636e-12, No Iterations 1
GAMG:  Solving for h, Initial residual = 1.540160574e-07, Final residual = 1.197564493e-12, No Iterations 1
ExecutionTime = 0.982799 s  ClockTime = 1 s

 Time = 9300
Courant number mean: 0.01657912802 max: 0.02748779114
Gravity wave Courant number max: 0.4595065022
GAMG:  Solving for Ux, Initial residual = 0.0004778639754, Final residual = 2.272114863e-12, No Iterations 1
GAMG:  Solving for Uy, Initial residual = 0.0003939365588, Final residual = 1.221653969e-12, No Iterations 1
GAMG:  Solving for Uz, Initial residual = 0.0195543968, Final residual = 7.255865855e-11, No Iterations 1
GAMG:  Solving for h, Initial residual = 0.0002418719632, Final residual = 4.89017955e-10, No Iterations 1
GAMG:  Solving for Ux, Initial residual = 1.581485123e-05, Final residual = 1.900879734e-13, No Iterations 1
GAMG:  Solving for Uy, Initial residual = 8.756255016e-06, Final residual = 6.042690587e-14, No Iterations 1
GAMG:  Solving for Uz, Initial residual = 8.90093104e-05, Final residual = 1.389019974e-12, No Iterations 1
GAMG:  Solving for h, Initial residual = 1.54443024e-07, Final residual = 1.179436043e-12, No Iterations 1
ExecutionTime = 1.001272 s  ClockTime = 1 s

 Time = 9600
Courant number mean: 0.0165791523 max: 0.0274923953
Gravity wave Courant number max: 0.4595026347
GAMG:  Solving for Ux, Initial residual = 0.0004773059116, Final residual = 2.375767021e-12, No Iterations 1
GAMG:  Solving for Uy, Initial residual = 0.0003943722616, Final residual = 1.28561389e-12, No Iterations 1
GAMG:  Solving for Uz, Initial residual = 0.01902622274, Final residual = 7.35153404e-11, No Iterations 1
GAMG:  Solving for h, Initial residual = 0.0002423168522, Final residual = 4.731973518e-10, No Iterations 1
GAMG:  Solving for Ux, Initial residual = 1.58922909e-05, Final residual = 1.91596874e-13, No Iterations 1
GAMG:  Solving for Uy, Initial residual = 8.872261595e-06, Final residual = 6.253805184e-14, No Iterations 1
GAMG:  Solving for Uz, Initial residual = 8.744499394e-05, Final residual = 1.375246873e-12, No Iterations 1
GAMG:  Solving for h, Initial residual = 1.55080151e-07, Final residual = 1.163184234e-12, No Iterations 1
ExecutionTime = 1.019539 s  ClockTime = 1 s

 Time = 9900
Courant number mean: 0.01657917571 max: 0.02749721124
Gravity wave Courant number max: 0.4594992651
GAMG:  Solving for Ux, Initial residual = 0.0004787712129, Final residual = 2.468417357e-12, No Iterations 1
GAMG:  Solving for Uy, Initial residual = 0.0003947637687, Final residual = 1.342837206e-12, No Iterations 1
GAMG:  Solving for Uz, Initial residual = 0.01853205268, Final residual = 7.407261906e-11, No Iterations 1
GAMG:  Solving for h, Initial residual = 0.0002425612661, Final residual = 4.573733829e-10, No Iterations 1
GAMG:  Solving for Ux, Initial residual = 1.591132406e-05, Final residual = 1.926134832e-13, No Iterations 1
GAMG:  Solving for Uy, Initial residual = 8.979819475e-06, Final residual = 6.620667175e-14, No Iterations 1
GAMG:  Solving for Uz, Initial residual = 8.63064509e-05, Final residual = 1.375325346e-12, No Iterations 1
GAMG:  Solving for h, Initial residual = 1.552166217e-07, Final residual = 1.1432204e-12, No Iterations 1
ExecutionTime = 1.040098 s  ClockTime = 1 s

 Time = 10200
Courant number mean: 0.01657919795 max: 0.02750213901
Gravity wave Courant number max: 0.4594963283
GAMG:  Solving for Ux, Initial residual = 0.0004813249294, Final residual = 2.56378775e-12, No Iterations 1
GAMG:  Solving for Uy, Initial residual = 0.0003953693592, Final residual = 1.392396469e-12, No Iterations 1
GAMG:  Solving for Uz, Initial residual = 0.01805085743, Final residual = 7.485431316e-11, No Iterations 1
GAMG:  Solving for h, Initial residual = 0.0002428252972, Final residual = 4.45459926e-10, No Iterations 1
GAMG:  Solving for Ux, Initial residual = 1.589142736e-05, Final residual = 1.935301831e-13, No Iterations 1
GAMG:  Solving for Uy, Initial residual = 9.084787805e-06, Final residual = 7.071454348e-14, No Iterations 1
GAMG:  Solving for Uz, Initial residual = 8.52773417e-05, Final residual = 1.36812312e-12, No Iterations 1
GAMG:  Solving for h, Initial residual = 1.551549212e-07, Final residual = 1.119289021e-12, No Iterations 1
ExecutionTime = 1.056658 s  ClockTime = 1 s

 Time = 10500
Courant number mean: 0.01657921871 max: 0.02750704384
Gravity wave Courant number max: 0.4594937431
GAMG:  Solving for Ux, Initial residual = 0.0004837897092, Final residual = 2.643874461e-12, No Iterations 1
GAMG:  Solving for Uy, Initial residual = 0.0003959405998, Final residual = 1.428452756e-12, No Iterations 1
GAMG:  Solving for Uz, Initial residual = 0.01759473327, Final residual = 7.657957208e-11, No Iterations 1
GAMG:  Solving for h, Initial residual = 0.0002425936765, Final residual = 4.363731016e-10, No Iterations 1
GAMG:  Solving for Ux, Initial residual = 1.586993472e-05, Final residual = 2.01954623e-13, No Iterations 1
GAMG:  Solving for Uy, Initial residual = 9.196686186e-06, Final residual = 7.483343886e-14, No Iterations 1
GAMG:  Solving for Uz, Initial residual = 8.447868094e-05, Final residual = 1.35023321e-12, No Iterations 1
GAMG:  Solving for h, Initial residual = 1.550819615e-07, Final residual = 1.09338013e-12, No Iterations 1
ExecutionTime = 1.072588 s  ClockTime = 1 s

 Time = 10800
Courant number mean: 0.01657923771 max: 0.02751176003
Gravity wave Courant number max: 0.4594914175
GAMG:  Solving for Ux, Initial residual = 0.0004863415246, Final residual = 2.69510619e-12, No Iterations 1
GAMG:  Solving for Uy, Initial residual = 0.0003967252407, Final residual = 1.453155587e-12, No Iterations 1
GAMG:  Solving for Uz, Initial residual = 0.01716377841, Final residual = 7.751369074e-11, No Iterations 1
GAMG:  Solving for h, Initial residual = 0.0002420138403, Final residual = 4.292576436e-10, No Iterations 1
GAMG:  Solving for Ux, Initial residual = 1.580930206e-05, Final residual = 2.158679766e-13, No Iterations 1
GAMG:  Solving for Uy, Initial residual = 9.314346877e-06, Final residual = 7.839002591e-14, No Iterations 1
GAMG:  Solving for Uz, Initial residual = 8.386148438e-05, Final residual = 1.340376573e-12, No Iterations 1
GAMG:  Solving for h, Initial residual = 1.551172579e-07, Final residual = 1.065515568e-12, No Iterations 1
ExecutionTime = 1.090104 s  ClockTime = 1 s
End
